@<TRIPOS>MOLECULE
*****
 24 26 0 0 0
SMALL
GASTEIGER

@<TRIPOS>ATOM
      1 C          -3.6280    0.6988    0.0218 C.ar    1  LIG1       -0.0612
      2 C          -3.6285   -0.7002    0.0210 C.ar    1  LIG1       -0.0612
      3 C          -2.4193   -1.4026   -0.0064 C.ar    1  LIG1       -0.0540
      4 C          -1.2078   -0.7076   -0.0294 C.ar    1  LIG1       -0.0173
      5 C           0.0028   -1.4055   -0.0346 C.ar    1  LIG1       -0.0463
      6 C           1.2109   -0.7056   -0.0301 C.ar    1  LIG1       -0.0173
      7 C           2.4249   -1.4019   -0.0079 C.ar    1  LIG1       -0.0540
      8 C           3.6326   -0.6978    0.0192 C.ar    1  LIG1       -0.0612
      9 C           3.6322    0.7007    0.0212 C.ar    1  LIG1       -0.0612
     10 C           2.4237    1.4043   -0.0058 C.ar    1  LIG1       -0.0540
     11 C           1.2127    0.7081   -0.0288 C.ar    1  LIG1       -0.0173
     12 C           0.0011    1.4087   -0.0344 C.ar    1  LIG1       -0.0463
     13 C          -1.2078    0.7081   -0.0286 C.ar    1  LIG1       -0.0173
     14 C          -2.4205    1.4030   -0.0056 C.ar    1  LIG1       -0.0540
     15 H          -4.5225    1.2131    0.0426 H       1  LIG1        0.0618
     16 H          -4.5227   -1.2149    0.0406 H       1  LIG1        0.0618
     17 H          -2.4221   -2.4346   -0.0096 H       1  LIG1        0.0624
     18 H           0.0039   -2.4375   -0.0417 H       1  LIG1        0.0630
     19 H           2.4286   -2.4339   -0.0116 H       1  LIG1        0.0624
     20 H           4.5273   -1.2119    0.0378 H       1  LIG1        0.0618
     21 H           4.5266    1.2152    0.0426 H       1  LIG1        0.0618
     22 H           2.4266    2.4363   -0.0086 H       1  LIG1        0.0624
     23 H           0.0007    2.4406   -0.0427 H       1  LIG1        0.0630
     24 H          -2.4245    2.4350   -0.0087 H       1  LIG1        0.0624
@<TRIPOS>BOND
     1     1     2   ar
     2     1    14   ar
     3     2     3   ar
     4     3     4   ar
     5     4     5   ar
     6     4    13   ar
     7     5     6   ar
     8     6     7   ar
     9     6    11   ar
    10     7     8   ar
    11     8     9   ar
    12     9    10   ar
    13    10    11   ar
    14    11    12   ar
    15    12    13   ar
    16    13    14   ar
    17     1    15    1
    18     2    16    1
    19     3    17    1
    20     5    18    1
    21     7    19    1
    22     8    20    1
    23     9    21    1
    24    10    22    1
    25    12    23    1
    26    14    24    1
