@<TRIPOS>MOLECULE
*****
 12 12 0 0 0
SMALL
GASTEIGER

@<TRIPOS>ATOM
      1 C          -0.7644    1.1710    0.0002 C.ar    1  LIG1       -0.0618
      2 C           0.6318    1.2473    0.0014 C.ar    1  LIG1       -0.0618
      3 C           1.3963    0.0759    0.0032 C.ar    1  LIG1       -0.0618
      4 C           0.7638   -1.1714    0.0037 C.ar    1  LIG1       -0.0618
      5 C          -0.6324   -1.2477    0.0024 C.ar    1  LIG1       -0.0618
      6 C          -1.3968   -0.0764    0.0006 C.ar    1  LIG1       -0.0618
      7 H          -1.3284    2.0353   -0.0010 H       1  LIG1        0.0618
      8 H           1.0983    2.1679    0.0011 H       1  LIG1        0.0618
      9 H           2.4268    0.1320    0.0040 H       1  LIG1        0.0618
     10 H           1.3277   -2.0358    0.0052 H       1  LIG1        0.0618
     11 H          -1.0989   -2.1682    0.0027 H       1  LIG1        0.0618
     12 H          -2.4273   -0.1326   -0.0005 H       1  LIG1        0.0618
@<TRIPOS>BOND
     1     1     6   2
     2     1     2   2
     3     5     6   2
     4     4     5   2
     5     3     4   2
     6     2     3   2
     7     1     7    1
     8     2     8    1
     9     3     9    1
    10     4    10    1
    11     5    11    1
    12     6    12    1
