@<TRIPOS>MOLECULE
*****
 10 9 0 0 0
SMALL
GASTEIGER

@<TRIPOS>ATOM
      1 C           0.8994    0.0304    0.0600 C.2     1  LIG1       -0.0987
      2 C           2.2286    0.0273    0.0585 C.2     1  LIG1       -0.0694
      3 C           2.9578   -1.1140   -0.4977 C.2     1  LIG1       -0.0694
      4 C           4.2870   -1.1170   -0.4992 C.2     1  LIG1       -0.0987
      5 H           0.3857    0.8350    0.4521 H       1  LIG1        0.0535
      6 H           0.3811   -0.7718   -0.3310 H       1  LIG1        0.0535
      7 H           2.7467    0.8296    0.4494 H       1  LIG1        0.0612
      8 H           2.4397   -1.9163   -0.8887 H       1  LIG1        0.0612
      9 H           4.8053   -0.3148   -0.1083 H       1  LIG1        0.0535
     10 H           4.8007   -1.9217   -0.8913 H       1  LIG1        0.0535
@<TRIPOS>BOND
     1     1     2    2
     2     2     3    1
     3     3     4    2
     4     1     5    1
     5     1     6    2
     6     2     7    1
     7     3     8    2
     8     4     9    1
     9     4    10    2
