@<TRIPOS>MOLECULE
*****
 36 42 0 0 0
SMALL
GASTEIGER

@<TRIPOS>ATOM
      1 C          -3.5212    1.1976    0.0029 C.ar    1  LIG1       -0.0534
      2 C          -2.8266    2.4168    0.0026 C.ar    1  LIG1       -0.0534
      3 C          -1.4263    2.4326    0.0014 C.ar    1  LIG1       -0.0166
      4 C          -0.7260    3.6455    0.0006 C.ar    1  LIG1       -0.0534
      5 C           0.6772    3.6534   -0.0007 C.ar    1  LIG1       -0.0534
      6 C           1.3911    2.4484   -0.0011 C.ar    1  LIG1       -0.0166
      7 C           2.7915    2.4485   -0.0019 C.ar    1  LIG1       -0.0534
      8 C           3.4999    1.2370   -0.0021 C.ar    1  LIG1       -0.0534
      9 C           2.8133    0.0167   -0.0016 C.ar    1  LIG1       -0.0166
     10 C           3.5134   -1.1961   -0.0019 C.ar    1  LIG1       -0.0534
     11 C           2.8186   -2.4152   -0.0018 C.ar    1  LIG1       -0.0534
     12 C           1.4184   -2.4306   -0.0017 C.ar    1  LIG1       -0.0166
     13 C           0.7184   -3.6433   -0.0015 C.ar    1  LIG1       -0.0534
     14 C          -0.6848   -3.6513   -0.0011 C.ar    1  LIG1       -0.0534
     15 C          -1.3984   -2.4465   -0.0002 C.ar    1  LIG1       -0.0166
     16 C          -2.7987   -2.4468    0.0006 C.ar    1  LIG1       -0.0534
     17 C          -3.5073   -1.2357    0.0017 C.ar    1  LIG1       -0.0534
     18 C          -2.8208   -0.0152    0.0018 C.ar    1  LIG1       -0.0166
     19 C          -1.4118   -0.0069    0.0008 C.ar    1  LIG1       -0.0013
     20 C          -0.7147    1.2163    0.0005 C.ar    1  LIG1       -0.0013
     21 C           0.6934    1.2244   -0.0005 C.ar    1  LIG1       -0.0013
     22 C           1.4043    0.0089   -0.0010 C.ar    1  LIG1       -0.0013
     23 C           0.7069   -1.2143   -0.0007 C.ar    1  LIG1       -0.0013
     24 C          -0.7008   -1.2223   -0.0002 C.ar    1  LIG1       -0.0013
     25 H          -4.5532    1.1946    0.0039 H       1  LIG1        0.0624
     26 H          -3.3501    3.3061    0.0032 H       1  LIG1        0.0624
     27 H          -1.2446    4.5377    0.0009 H       1  LIG1        0.0624
     28 H           1.1857    4.5515   -0.0013 H       1  LIG1        0.0624
     29 H           3.3050    3.3437   -0.0025 H       1  LIG1        0.0624
     30 H           4.5319    1.2456   -0.0026 H       1  LIG1        0.0624
     31 H           4.5454   -1.1933   -0.0022 H       1  LIG1        0.0624
     32 H           3.3420   -3.3046   -0.0018 H       1  LIG1        0.0624
     33 H           1.2370   -4.5356   -0.0018 H       1  LIG1        0.0624
     34 H          -1.1933   -4.5493   -0.0014 H       1  LIG1        0.0624
     35 H          -3.3120   -3.3421    0.0003 H       1  LIG1        0.0624
     36 H          -4.5393   -1.2444    0.0025 H       1  LIG1        0.0624
@<TRIPOS>BOND
     1     1     2   ar
     2     1    18   ar
     3     2     3   ar
     4     3    20   ar
     5    19    20   ar
     6    20    21   ar
     7    18    19   ar
     8    19    24   ar
     9    15    24   ar
    10    23    24   ar
    11    14    15   ar
    12    13    14   ar
    13    12    13   ar
    14    12    23   ar
    15    22    23   ar
    16     9    22   ar
    17    21    22   ar
    18     8     9   ar
    19     7     8   ar
    20     6     7   ar
    21     6    21   ar
    22     3     4   ar
    23     5     6   ar
    24     9    10   ar
    25    11    12   ar
    26    15    16   ar
    27    17    18   ar
    28     4     5   ar
    29    10    11   ar
    30    16    17   ar
    31     1    25    1
    32     2    26    1
    33     4    27    1
    34     5    28    1
    35     7    29    1
    36     8    30    1
    37    10    31    1
    38    11    32    1
    39    13    33    1
    40    14    34    1
    41    16    35    1
    42    17    36    1
