@<TRIPOS>MOLECULE
*****
 18 19 0 0 0
SMALL
GASTEIGER

@<TRIPOS>ATOM
      1 C           2.4230   -0.6706   -0.0001 C.ar    1  LIG1       -0.0612
      2 C           2.4071    0.7286   -0.0019 C.ar    1  LIG1       -0.0612
      3 C           1.1901    1.4182   -0.0028 C.ar    1  LIG1       -0.0540
      4 C          -0.0136    0.7084   -0.0024 C.ar    1  LIG1       -0.0179
      5 C          -1.2337    1.3905   -0.0047 C.ar    1  LIG1       -0.0540
      6 C          -2.4345    0.6735   -0.0058 C.ar    1  LIG1       -0.0612
      7 C          -2.4187   -0.7258   -0.0041 C.ar    1  LIG1       -0.0612
      8 C          -1.2015   -1.4152   -0.0013 C.ar    1  LIG1       -0.0540
      9 C           0.0020   -0.7056   -0.0007 C.ar    1  LIG1       -0.0179
     10 C           1.2222   -1.3876    0.0007 C.ar    1  LIG1       -0.0540
     11 H           3.3234   -1.1750    0.0005 H       1  LIG1        0.0618
     12 H           3.2958    1.2533   -0.0024 H       1  LIG1        0.0618
     13 H           1.1811    2.4501   -0.0038 H       1  LIG1        0.0624
     14 H          -1.2484    2.4224   -0.0056 H       1  LIG1        0.0624
     15 H          -3.3349    1.1779   -0.0079 H       1  LIG1        0.0618
     16 H          -3.3073   -1.2505   -0.0050 H       1  LIG1        0.0618
     17 H          -1.1926   -2.4472    0.0003 H       1  LIG1        0.0624
     18 H           1.2369   -2.4195    0.0023 H       1  LIG1        0.0624
@<TRIPOS>BOND
     1     1     2   ar
     2     1    10   ar
     3     2     3   ar
     4     3     4   ar
     5     4     5   ar
     6     4     9   ar
     7     5     6   ar
     8     6     7   ar
     9     7     8   ar
    10     8     9   ar
    11     9    10   ar
    12     1    11    1
    13     2    12    1
    14     3    13    1
    15     5    14    1
    16     6    15    1
    17     7    16    1
    18     8    17    1
    19    10    18    1
