@<TRIPOS>MOLECULE
*****
 32 36 0 0 0
SMALL
GASTEIGER

@<TRIPOS>ATOM
      1 C           2.1066   -0.9039   -0.1223 C.ar    1  LIG1       -0.0534
      2 C           3.9424   -0.2794    0.2365 C.ar    1  LIG1       -0.0606
      3 C           4.8732   -1.8192   -0.0716 C.ar    1  LIG1       -0.0540
      4 C           3.8770   -2.7449    0.2883 C.ar    1  LIG1       -0.0167
      5 C           5.2909   -3.9863   -0.1280 C.ar    1  LIG1       -0.0540
      6 C           4.5618   -5.4263   -0.0062 C.ar    1  LIG1       -0.0606
      7 C           3.0839   -5.5043   -0.3993 C.ar    1  LIG1       -0.0534
      8 C           2.5711   -4.7831   -0.3054 C.ar    1  LIG1       -0.0090
      9 C           2.9530   -3.4644   -0.2740 C.ar    1  LIG1       -0.0024
     10 C           1.5664   -2.3571    0.2958 C.ar    1  LIG1       -0.0090
     11 C           0.1937   -3.2467    0.8977 C.ar    1  LIG1       -0.0090
     12 C          -1.0502   -6.4532    0.9029 C.ar    1  LIG1       -0.0534
     13 C          -1.8053   -6.4219   -0.9110 C.ar    1  LIG1       -0.0606
     14 C          -2.0336   -4.8167   -0.9144 C.ar    1  LIG1       -0.0540
     15 C          -0.9801   -3.5319   -0.3112 C.ar    1  LIG1       -0.0167
     16 C          -2.4453   -2.4989    0.2899 C.ar    1  LIG1       -0.0540
     17 C          -2.5579   -3.3226    0.8909 C.ar    1  LIG1       -0.0606
     18 C           0.0998   -5.0188    0.9149 C.ar    1  LIG1       -0.0534
     19 C           1.2130   -4.9907    0.9027 C.ar    1  LIG1       -0.0090
     20 C          -0.1491   -3.9126    0.2984 C.ar    1  LIG1       -0.0024
     21 H           1.4582   -0.2622   -0.6047 H       1  LIG1        0.0624
     22 H           4.2811    0.6537    0.5187 H       1  LIG1        0.0618
     23 H           5.8377   -1.9660   -0.4078 H       1  LIG1        0.0624
     24 H           6.2733   -3.7827   -0.3696 H       1  LIG1        0.0624
     25 H           5.0733   -6.2597    0.3236 H       1  LIG1        0.0618
     26 H           2.6874   -6.3826   -0.7686 H       1  LIG1        0.0624
     27 H          -1.0325   -7.1920    1.6233 H       1  LIG1        0.0624
     28 H          -1.9896   -7.1597   -1.6085 H       1  LIG1        0.0618
     29 H          -2.9236   -4.4989   -1.3292 H       1  LIG1        0.0624
     30 H          -2.8945   -1.5876    0.1090 H       1  LIG1        0.0624
     31 H          -3.4162   -3.5614    1.4118 H       1  LIG1        0.0618
     32 H          -0.1767   -6.0125    0.9476 H       1  LIG1        0.0624
@<TRIPOS>BOND
     1     1     2   ar
     2     2     3   ar
     3     1    10   ar
     4    10    11   ar
     5     9    10   ar
     6    11    20   ar
     7    19    20   ar
     8     8    19   ar
     9     7     8   ar
    10     8     9   ar
    11     6     7   ar
    12     5     6   ar
    13     4     5   ar
    14     3     4   ar
    15     4     9   ar
    16    15    20   ar
    17    15    16   ar
    18    16    17   ar
    19    14    15   ar
    20    13    14   ar
    21    12    13   ar
    22    18    19   ar
    23    11    12   ar
    24    17    18   ar
    25     1    21    1
    26     2    22    1
    27     3    23    1
    28     5    24    1
    29     6    25    1
    30     7    26    1
    31    12    27    1
    32    13    28    1
    33    14    29    1
    34    16    30    1
    35    17    31    1
    36    18    32    1
